17
Lattice="100.0 0.0 0.0 0.0 100.0 0.0 0.0 0.0 100.0" Properties=species:S:1:pos:R:3  pbc="T T T"
C       48.04110330      49.64011859      49.50314917
N       49.49111848      49.62955787      49.57269793
C       50.13948116      48.45247634      50.17154444
C       51.54735120      49.00843017      50.47036266
N       51.39373799      50.47452137      50.52800239
C       50.23537295      50.73401485      50.01500522
C       49.72059364      52.12588474      49.82415448
H       47.69484120      48.81984353      48.85854539
H       47.69020216      50.58030872      49.06077119
H       47.56756528      49.51762385      50.49881989
H       50.13467177      47.59617927      49.48147299
H       49.60671171      48.15783148      51.09941644
H       52.25376018      48.76048001      49.65864660
H       51.97262005      48.62115455      51.40673352
H       48.81152252      52.30871663      50.41689123
H       49.47432007      52.31292327      48.76817430
H       50.49637620      52.83083564      50.14033037
